1024
CUB 27.35
Si   3.224592   0.592858   2.558866
Si  19.777852  14.008014  16.785051
Si  15.344116  18.065960  16.736997
Si  15.147141  20.357152  16.719329
Si  19.697826  17.818771  15.089323
Si  20.173606  19.960577  14.244400
Si  17.941409  17.148040  13.696142
Si  15.024176  14.613406  17.539911
Si  16.093916  16.601751  18.496504
Si  18.318237  16.980412  19.035327
Si  19.332183  14.809205  18.913728
Si  19.749709  18.180639  17.512943
Si  16.761967  15.215407  22.757798
Si  15.623742  16.095338  20.875735
Si  13.927577  13.686624  13.823893
Si  18.125583  16.820879  23.832927
Si  16.180479  18.329204  21.666369
Si  14.832452  19.938888  20.653270
Si  19.135756  20.025260  21.487992
Si  18.500716  17.822190  21.223545
Si  15.082787  14.984381  24.453033
Si  14.728358  16.051578  26.610784
Si  19.630927  14.486912  26.779452
Si  18.685520  16.495004  26.099996
Si  16.956125  20.489389  24.682910
Si  16.279486  18.386092  24.082140
Si  14.157454  17.877218  24.965354
Si  20.178748  18.282518  26.667672
Si  16.039544  21.694868   3.017526
Si  20.278630  16.633450  22.371808
Si  15.430159  21.626438   0.728560
Si  15.859718  16.795690  14.666902
Si  18.735215  20.416310  12.373687
Si  14.665644  13.922435   0.365500
Si  19.175687  16.573717   3.149216
Si  17.495986  17.962988   2.169747
Si  18.737321  19.418090   0.737493
Si  14.127068  15.718045   3.647423
Si  16.109123  14.325574   3.633858
Si  18.053079  15.229984   4.792705
Si  17.905662  16.557963   6.748995
Si  17.053190  20.131077   5.776156
Si  16.288402  19.429549   3.661454
Si  14.308016  18.092025   3.861109
Si  14.051555  18.576366   6.092924
Si  18.720637  18.652208   6.344790
Si  15.646880  14.566884  15.245847
Si  20.274035  17.979042   4.683441
Si  16.106935  17.090906   8.158888
Si  20.091912  16.199132   7.808234
Si  13.992287  18.780616   9.849692
Si  15.575962  19.485289   7.692215
Si  19.646681  17.377233   9.977718
Si  19.561732  19.273080   8.510089
Si  16.420393  16.875388  10.562926
Si  13.822444  16.659842  10.893751
Si  18.320233  15.418371  10.552861
Si  19.085842  15.241034  12.797995
Si  13.960807  17.181270  13.226733
Si  16.439292  19.529049  10.336468
Si  18.127580  18.362052  11.612755
Si  14.273582  15.434152   8.764663
Si  16.804770  16.442711   0.358977
Si  19.747302  21.008903   2.281242
Si  16.246037  26.779479   2.409445
Si  18.943649  21.304884  15.670647
Si  15.246640  25.160851  14.923555
Si  17.292940  26.435799  15.317723
Si  18.496258  24.811975  16.520138
Si  15.975299  20.948568  18.883178
Si  15.955306  23.292655  18.782120
Si  18.221855  21.005976  19.615037
Si  20.300702  23.678454  19.695063
Si  19.542286  20.580519  17.723238
Si  14.164401  25.800021  20.337159
Si  16.465739  25.250942  20.483865
Si  13.818533  24.159212  18.695667
Si  17.836986  26.909419  19.561705
Si  19.640910  23.403942  14.988621
Si  19.549096  25.592544  18.474816
Si  15.665123  22.286147  23.882075
Si  17.530994  23.454813  22.928052
Si  19.116966  20.798636  23.776613
Si  18.088770  23.091687  20.570126
Si  17.204217  25.728501  22.638306
Si  19.204213  27.056726  22.957317
Si  14.340945  23.640875  25.343166
Si  18.842153  22.799398  26.513719
Si  19.499757  23.102326  24.107575
Si  17.405349  20.949225  26.985479
Si  15.492900  26.755575  24.045983
Si  17.472712  24.668114  26.903074
Si  17.294663  26.830159  25.765642
Si  14.156387  21.207053  22.445133
Si  14.303120  25.383781   1.739687
Si  16.668184  21.523602  15.204275
Si  18.400068  26.710639  13.287915
Si  15.305689  23.945609   0.036401
Si  18.291789  25.944839   1.394891
Si  20.174755  27.236361   1.016909
Si  14.319557  22.635489   4.644304
Si  15.069713  23.403860   6.822922
Si  18.266928  22.470487   3.481573
Si  18.289738  22.159052   5.958772
Si  16.583946  25.794523   4.603853
Si  14.349752  25.049318   4.109720
Si  17.234028  24.381185   6.510503
Si  18.502576  24.818128   3.549209
Si  15.284465  21.599088   8.427547
Si  17.158679  21.907487  10.051891
Si  16.509636  23.608547  16.344989
Si  18.785156  21.616237   8.202648
Si  16.394328  25.867411   8.436572
Si  14.254738  24.043658  10.090728
Si  19.054526  25.685096   7.899036
Si  20.251909  24.300584   9.128992
Si  16.590209  21.508861  12.693135
Si  16.304566  23.865118  12.989855
Si  14.646199  20.590776  11.682908
Si  19.043203  23.462389  10.854449
Si  20.457226  21.537605  11.290928
Si  16.690146  26.719254  11.465612
Si  16.495469  24.507241  10.597058
Si  14.717910  26.523592  13.015537
Si  18.561050  24.315873  13.064657
Si  14.150097  25.373580   8.123661
Si  20.642604   2.143192   1.463332
Si  16.773892  14.293684   1.336923
Si  14.840739  12.698933  24.668743
Si  19.331746   3.318540  18.969249
Si  14.115526   5.608200  17.759476
Si  16.383006   5.154682  17.646904
Si  13.767169   5.448011  20.068445
Si  17.561107   6.478066  19.082970
Si  20.421042   5.275268  18.174239
Si  14.873313   1.508437  23.298344
Si  14.038317   2.098401  21.187361
Si  17.095774   2.306341  23.200458
Si  18.263783   1.067243  21.417293
Si  19.771698   3.021136  21.270341
Si  20.437178   2.452964  23.604171
Si  16.870738   4.555826  22.364013
Si  16.924043   3.167595  18.754743
Si  15.610505   6.258610  23.263445
Si  18.572318   5.386500  20.989019
Si  15.533761   3.308530  26.386979
Si  13.719034   2.783601  24.759818
Si  18.801457   1.064109  24.805000
Si  17.844015   3.225522  25.708070
Si  14.108798   5.335137  24.888637
Si  14.859884   5.753428  27.261577
Si  18.796041   5.437180  25.668577
Si  20.051215   6.688771  27.186720
Si  17.127445   6.025287  27.296613
Si  15.454446   7.513373   3.078407
Si  14.143150   8.951053   1.906590
Si  17.080184   9.931223   2.998517
Si  15.471239   3.790765  20.543624
Si  17.619444   7.795735   1.812271
Si  16.255199   1.001568  18.665281
Si  20.165401   5.951032  14.342614
Si  17.849294   2.076223   6.309836
Si  19.807061   4.762948   4.274942
Si  17.725316   4.210642   5.252048
Si  16.287828   0.896831   8.045112
Si  14.294532   2.006232   8.915006
Si  18.095307   3.077778   8.618806
Si  19.341017   0.355175   9.198598
Si  17.360166   1.233696  10.183034
Si  20.506893   2.484912   8.509542
Si  15.054589   6.678952   6.899967
Si  17.559466   5.314023   9.192007
Si  17.241741   5.844640   6.885554
Si  15.080079   2.896885  12.669450
Si  14.121434   0.637966  19.391451
Si  17.339353   2.762295  11.987013
Si  16.834746   6.743006  12.156446
Si  14.159669   3.640422  10.694671
Si  15.480237   5.669491  10.360754
Si  14.592866   6.588478  13.018217
Si  18.222074   4.910118  11.703612
Si  20.461656   5.251966  12.147065
Si  16.300463   1.010301  16.360196
Si  14.120942   1.638610  15.764239
Si  17.819564   2.565597  15.606621
Si  20.140376   2.416665  16.258700
Si  14.766156   4.626964  14.242157
Si  16.804442   4.689130  15.442603
Si  17.748564   6.485998  14.449196
Si  18.604099   1.752667  13.526982
Si  14.653774  11.650991  27.122120
Si  18.038556   9.373775   0.081450
Si  19.285470  10.764960   3.062708
Si  19.630162  10.431646  15.943546
Si  17.442326  11.164708  16.550661
Si  17.660579  13.401363  15.595462
Si  20.349713  11.035971  13.699177
Si  14.618055   9.152486  18.512586
Si  16.232909   8.147975  19.855170
Si  17.693016   9.716717  20.507003
Si  19.533972   7.414394  18.271687
Si  15.603448  12.920359  19.028298
Si  15.252411  11.244406  17.465382
Si  18.200413  11.354982  18.936593
Si  17.742437  13.480842  19.965582
Si  14.719442   7.116826  21.345937
Si  13.883516  12.000961  15.588406
Si  16.828537  10.220968  22.580926
Si  19.564494   6.939516  22.434166
Si  19.751432   8.953652  21.224421
Si  14.895439  11.605179  22.620994
Si  13.909280  11.847035  20.554783
Si  20.496254  10.756755  22.534431
Si  18.427527  11.633897  23.596677
Si  18.271195  13.441513  22.253382
Si  14.371331   8.091005  27.083474
Si  16.040693   9.659446  26.313490
Si  16.008064   8.596296  24.160853
Si  18.001360   7.121119  24.163506
Si  19.375643   8.508448  25.728090
Si  16.940426  11.868779  25.515718
Si  13.831852   9.604828  23.424892
Si  15.200528  11.024429   2.105192
Si  19.340717   7.999738  15.997781
Si  13.921068   7.749322  16.656916
Si  19.508482  11.040675   0.788927
Si  18.027534  12.810740   0.014065
Si  16.828592   9.610516   5.251473
Si  14.896232   8.247092   5.220021
Si  19.073507   8.954390   5.768361
Si  19.701791   8.450712   3.558208
Si  15.013017  12.184316   4.152578
Si  16.453623  11.677712   5.942116
Si  20.433294  12.247768   4.439862
Si  18.440710  13.009082   5.444373
Si  15.920107   9.572445   9.308408
Si  14.661597   7.499069   9.074539
Si  18.359070   9.259014   9.404544
Si  17.090304   8.836211  15.012032
Si  19.213512   7.082118   9.366117
Si  15.259358  11.494029   8.105391
Si  15.205561  13.325440   9.615248
Si  19.263890  10.502455   7.612435
Si  17.542946  13.417883   9.775191
Si  18.614930  12.686243   7.877429
Si  17.338286   9.024488  12.633375
Si  19.203064  10.163916  11.549768
Si  15.796348  10.522201  11.582752
Si  14.177584  12.357441  11.639011
Si  13.804065  10.481505  13.617100
Si  17.620128  11.960538  11.670300
Si  18.641158  13.033178  13.482702
Si  14.783167   8.394071  14.599731
Si  19.433707   7.001135   6.978817
Si  20.252019   1.709810   6.121504
Si  25.069229   2.308687   1.148093
Si  27.334602   1.854645   1.269313
Si  22.659530  20.023920  13.807101
Si  27.023605  17.787346  14.151081
Si  26.507894  17.582385  16.482778
Si  23.647685  14.133851  18.196693
Si  21.124155  15.938158  20.034887
Si  22.846221  14.423542  20.370198
Si  26.914506  14.490960  19.118060
Si  25.418543  15.591633  17.436090
Si  22.233718  20.032508  19.595509
Si  21.733623  17.825062  18.613836
Si  25.917270  20.232135  18.682484
Si  24.787989  18.955902  17.119979
Si  20.519447  14.245083  22.684117
Si  23.006273  17.666350  14.424855
Si  24.343688  15.288459  22.025146
Si  21.698560  18.374797  23.157436
Si  21.457962  20.288093  21.787584
Si  23.914457  17.738608  22.968229
Si  25.261855  19.449159  21.920423
Si  21.056191  13.755765  25.001565
Si  22.897311  15.177226  25.493154
Si  26.829612  15.523504  24.318143
Si  24.707252  14.455542  24.173489
Si  20.810205  19.637081  24.881471
Si  25.146520  18.903390  24.998502
Si  26.682715  17.350813  25.708754
Si  24.146522  19.782009  27.017807
Si  23.521574  23.843046   3.016951
Si  26.584556  14.554357  21.372275
Si  20.825411  22.347411   0.479804
Si  23.186345  17.128156  16.787840
Si  22.359473  14.765116  14.473921
Si  23.804455  17.921279   1.171431
Si  26.997486  19.275186   1.347461
Si  26.016250  17.258452   0.684114
Si  23.488590  14.576593   4.172735
Si  23.603460  16.716265   5.102443
Si  25.572250  16.576206   6.288640
Si  23.473821  20.441964   4.126705
Si  21.870099  17.394928   6.579754
Si  21.124347  20.178256   4.061202
Si  24.048062  18.310634   3.477553
Si  26.291829  18.849155   3.720065
Si  20.726678  13.892022   8.126150
Si  21.961831  14.554549  10.111186
Si  26.194900  14.631730  15.403274
Si  24.042154  15.430214   9.274494
Si  23.364968  17.463413   8.534294
Si  21.441197  20.351326   9.466273
Si  21.884567  19.783869   6.985682
Si  26.845365  19.055866   9.041472
Si  25.061379  18.589084   7.539520
Si  21.477326  16.701223  11.133447
Si  21.097735  16.495305  13.484371
Si  24.595335  14.740966  13.649346
Si  25.382523  15.460955  11.182266
Si  22.744616  18.690662  10.507132
Si  24.942407  17.198336  13.021937
Si  24.465560  19.424326  12.078799
Si  22.112557  15.000655  16.787321
Si  25.075191  14.305773   7.410346
Si  25.549495  14.048027   2.935257
Si  25.634061  21.279121   0.760401
Si  22.149698  24.196736   1.054064
Si  27.114845  21.674000  17.037272
Si  22.702086  25.477810  14.075267
Si  22.573377  26.602114  16.268026
Si  24.637454  25.767009  16.904816
Si  25.202396  25.063704  14.706204
Si  21.525161  21.859734  18.353819
Si  26.726338  23.730228  17.968540
Si  24.319675  20.785070  20.225899
Si  24.355531  23.774972  18.156626
Si  23.982504  23.168431  20.389890
Si  21.549092  26.824470  18.478480
Si  27.050791  27.213660  19.323978
Si  21.766087  22.361196  22.980017
Si  24.050906  20.633578  15.556407
Si  26.253101  20.615281  23.831669
Si  20.649059  25.104483  23.304798
Si  22.502978  26.445618  20.744428
Si  26.662065  24.078284  23.063134
Si  24.996259  26.845119  20.794041
Si  25.940436  24.472452  20.924446
Si  25.443760  27.100459  23.136240
Si  22.250401  20.960083  26.326317
Si  23.121061  22.549938  24.927474
Si  26.686899  22.860689  26.655501
Si  25.458748  22.652774  24.560874
Si  23.188752  24.558604  26.331048
Si  21.969489  26.109541  24.932096
Si  27.251403  26.021064  24.291422
Si  21.898981  24.179068  21.307975
Si  24.867714  21.973373   2.893739
Si  26.148979  21.456239  14.821922
Si  22.978431  22.492914  16.597047
Si  21.716256  26.138559   2.323295
Si  24.090536  26.543585   2.311425
Si  22.113241  23.640738   4.974938
Si  20.742213  21.888096   5.825796
Si  26.771548  22.689560   4.240016
Si  26.365400  20.632539   5.461686
Si  24.078366  20.534271   6.456624
Si  27.312202  23.916016   6.503502
Si  23.468816  24.624354   6.782964
Si  20.663773  25.450816   4.391152
Si  20.606256  26.694366   6.446532
Si  25.473298  25.450078   6.107392
Si  25.624543  25.027356   3.732345
Si  21.929421  23.351157  14.649234
Si  23.637484  22.501556   7.772214
Si  25.143375  22.629746   9.636280
Si  22.029605  25.740480   9.901903
Si  22.538998  26.496981   7.757089
Si  26.670489  26.384463   9.288580
Si  26.935374  24.039118   8.972961
Si  22.238449  22.071751  12.757982
Si  24.117504  23.138045  11.698142
Si  25.823049  23.160226  13.248203
Si  25.998336  20.569087  10.591178
Si  20.906641  26.952358  13.203048
Si  23.465780  25.328644  11.716959
Si  25.953865  26.893556  13.518667
Si  25.205377  26.885706  11.203982
Si  21.284919  22.417756   8.116140
Si  24.543753   1.386987   3.208128
Si  26.722755  15.230039   1.395649
Si  22.013386  16.664601   0.014708
Si  25.770346   6.612984  14.866421
Si  23.067728   2.823641  17.291463
Si  21.258116   1.879213  18.548551
Si  26.112112   0.251542  17.134228
Si  25.289807   2.298644  18.107751
Si  24.592792   1.865998  20.289625
Si  23.724347   5.048181  17.485922
Si  22.432142   5.873330  19.538375
Si  27.312613   3.822327  20.062975
Si  25.984743   4.567614  18.154574
Si  26.580098   6.766718  18.876095
Si  21.714560   0.689141  22.354003
Si  22.250292   2.359785  20.755970
Si  26.864455   4.751461  16.058470
Si  25.790147   3.208483  21.730614
Si  22.221519   4.583122  21.430940
Si  21.451289   5.977671  23.383894
Si  24.330861   4.804410  22.610026
Si  23.480768   0.431088  24.167800
Si  21.967575   2.410870  26.843095
Si  20.718746   0.465284  26.078635
Si  24.069805   1.118872  26.398603
Si  25.746907   2.714460  25.619292
Si  23.123331   4.676248  26.574190
Si  20.942688   4.266819  25.097755
Si  26.592323   6.244853  25.208112
Si  24.820152   4.698566  24.941258
Si  22.623373   8.583059   0.947965
Si  26.460824   1.820594  23.522258
Si  22.051539   8.472428   3.357650
Si  21.160750   4.619388  16.121594
Si  25.945167   3.357322  14.224434
Si  24.480684   4.726053   1.357227
Si  26.423573   6.275704   1.196918
Si  23.043031   2.864420   4.256125
Si  20.764612   2.623062   3.812809
Si  23.620882   2.941985   6.574749
Si  26.700492   1.539061   4.389730
Si  27.192327   2.124895   6.620997
Si  23.915442   5.028161   3.669385
Si  21.054851   5.636835   6.057505
Si  22.742701   6.722466   4.754852
Si  25.875452   5.389837   5.091038
Si  25.674813   3.880856   6.790403
Si  23.983488   0.960015   7.932457
Si  23.384141   5.813926  15.171619
Si  24.358074   1.603525  10.243642
Si  22.025475   4.225466   7.690246
Si  23.261011   5.489446   9.332859
Si  25.651127   5.059559   8.827267
Si  22.034965   2.193697  10.359332
Si  21.850052   3.306095  12.476879
Si  21.004308   0.209859  10.856336
Si  26.117828   3.193660  10.421526
Si  23.881200   4.230854  13.366109
Si  21.392568   6.661858  10.544109
Si  24.769445   5.070799  11.446440
Si  22.969815   1.363696  15.375295
Si  20.975809   1.817604  14.016000
Si  25.275831   1.151760  14.993407
Si  25.957010   0.065834   7.246383
Si  21.662568  13.722562   2.955222
Si  25.022214   8.375500   1.009959
Si  22.845510  11.882344   1.850490
Si  20.993204  12.012913  17.078161
Si  22.265717  12.514211  13.775593
Si  25.913988  12.372839  15.702182
Si  24.522530  12.053665  13.728223
Si  23.195973   8.096585  20.389398
Si  22.557049   8.831917  17.163602
Si  21.195183   8.955156  19.211214
Si  24.549606   8.156536  18.403323
Si  20.568321  11.317348  19.226530
Si  24.375004  12.044967  17.488793
Si  24.997298  10.522065  19.127852
Si  27.275964  10.384604  18.972175
Si  24.781561   7.191245  21.980648
Si  22.943642  10.956137  16.024092
Si  27.057109   7.196852  21.318887
Si  21.741472  12.383314  21.146500
Si  24.936363  10.627472  22.975422
Si  27.284442  10.770211  22.553822
Si  21.128285   9.800900  24.595527
Si  22.505495   7.909483  24.525866
Si  22.292493   6.935030  26.665238
Si  24.660975   8.470022  23.932672
Si  25.694887   8.229506  26.119031
Si  27.320599   9.760668  26.437878
Si  22.238805  11.649350  25.478385
Si  26.112768  11.905674  26.741107
Si  24.581332  12.128713  24.779319
Si  20.675807  15.413175   1.504045
Si  23.469965  10.528574  21.006058
Si  26.207372  10.181448   2.307911
Si  27.253318   9.514928  16.848503
Si  25.199825   8.558471  15.926671
Si  21.847891  10.712284   0.255156
Si  25.099642  12.163393   1.629488
Si  24.210767   8.057939   5.936126
Si  26.538252   7.471035   6.266788
Si  22.493707  10.714089   4.002946
Si  21.647908  12.315896   6.699273
Si  23.778008  12.982662   5.960714
Si  24.205242  10.486291   5.686038
Si  26.869187  12.980091   4.520764
Si  26.250120  10.615492   4.542370
Si  27.259444  13.614092   6.826478
Si  21.482057   8.124728   8.266729
Si  23.705230   7.412233   8.108154
Si  24.278896   9.788674  14.141782
Si  25.025988   8.791247   9.458478
Si  21.577591  10.479700   8.292794
Si  26.902472  10.330970   9.782767
Si  24.030394  10.588635   8.128776
Si  25.338052  12.385092   8.965686
Si  22.438131   8.577835  11.506583
Si  24.775791   8.879752  11.891944
Si  25.787221   6.894497  12.524741
Si  21.442400  10.603951  10.709549
Si  22.387698  12.582094  11.373361
Si  24.804918  13.040781  11.191073
Si  25.946398  11.016689  11.891424
Si  21.815536   7.570836  15.288486
Si  21.919165   9.291916  13.712387
Si  26.765312   7.083486   8.630949
Si  16.254597   0.646877   5.246797
Si  13.989388   0.868907   5.800689
Si  19.476920   6.332181   2.219819
Si   6.772298  16.830287  13.474470
Si   5.910800  19.094293  13.355743
Si   3.648189  19.205115  12.505870
Si   1.122017  14.536935  14.494297
Si   2.408427  14.566036  16.438170
Si   4.726818  14.841942  16.458245
Si   4.881756  16.711260  14.944532
Si   6.504787  14.229767  13.867216
Si   2.604508  19.231727  16.327622
Si   1.629177  19.242475  14.184913
Si   6.016344  20.339128  15.379944
Si   4.832389  18.578527  16.443121
Si   1.456111  15.707433  18.253746
Si   4.668891  16.254023  10.675498
Si   3.174487  15.100263  19.812258
Si   6.702391  16.595761  20.247998
Si   1.097720  18.001770  17.705788
Si   0.513070  19.255439  19.605328
Si   6.061799  18.205063  18.406659
Si   6.043666  20.202324  19.527408
Si   2.825884  16.252054  21.921435
Si   0.499715  16.181545  22.394672
Si   4.464641  15.734564  23.869029
Si   1.788113  19.260636  23.443764
Si   0.137432  18.540045  21.833177
Si   3.658418  18.527601  22.074459
Si   5.634975  17.282547  22.343418
Si   3.995479  20.442265  20.642112
Si   5.206483  15.372724  18.723400
Si   2.939906  16.269585  25.536093
Si   3.566522  16.818472  12.840579
Si   0.371821  15.868744  11.008348
Si   6.262439  13.016056  25.004519
Si   5.092761  11.805956  26.807896
Si   1.038381  15.842323   2.970019
Si   3.022531  16.721981   2.172225
Si   5.408134  13.975795   2.765003
Si   3.895570  15.595654   0.258921
Si   6.234296  16.135242   0.267810
Si   3.015037  19.130067   2.059556
Si   1.695000  19.532823   0.136168
Si   5.240069  19.922588   1.688597
Si   2.986374  14.532231   5.182059
Si   1.097050  15.563791   6.410949
Si   0.117955  17.076492   4.758162
Si   1.538580  13.791894  10.433697
Si   5.968126  14.141099   6.110838
Si   4.422522  15.887697   3.854436
Si   1.633875  18.664132   5.506293
Si   2.186958  20.384912   3.889334
Si   3.543110  17.780016   6.577237
Si   2.336929  16.413118   8.172836
Si   3.527029  14.599020   9.447428
Si   1.307943  17.711340   9.760203
Si   3.332844  19.324060  10.140560
Si   0.594428  19.873604   7.075089
Si   4.701383  17.845957   8.876306
Si   3.979261  20.067351   6.920042
Si   6.746178  17.342416   8.011936
Si   1.135446  16.375813  13.059598
Si   5.547674  16.793146   5.780833
Si   2.967666  10.811017  25.334086
Si   1.243558  14.515110  25.565741
Si   1.578401  18.173309  25.507239
Si   3.340584  23.207487  16.666598
Si   1.121577  21.511595  13.687472
Si   4.792158  22.320827  14.957961
Si   0.819576  27.034737  16.215487
Si   0.853577  26.740259  13.747751
Si   0.004131  24.667211  15.865598
Si   4.383467  26.849577  14.371440
Si   4.281971  26.955969  16.683883
Si   6.523166  26.080659  13.777781
Si   2.085293  21.367133  17.405075
Si   0.659534  23.353919  20.166714
Si   1.894212  21.131978  19.756382
Si   5.169013  23.665271  18.144893
Si   1.754275  23.529205  14.893880
Si   2.459774  25.562213  17.307709
Si   6.176669  25.709656  17.414976
Si   6.751566  26.343055  19.560829
Si   4.507225  24.216593  20.490921
Si   1.630963  23.350664  22.458234
Si   3.893136  22.392539  21.957045
Si   5.345558  22.358488  23.854260
Si   2.206945  25.712528  23.256690
Si   3.216962  26.109431  21.017518
Si   6.821883  24.503576  20.976411
Si   1.207038  21.429600  24.085531
Si   1.686962  21.764911  26.528133
Si   4.153043  22.522014  26.135250
Si   5.612876  20.941512  27.047947
Si   1.538935  25.591641  19.450308
Si   6.565860  15.296691  25.320384
Si   2.640908  25.288931  13.589996
Si   5.103619  21.036170  10.568669
Si   2.204998  23.351375   1.115287
Si   1.278509  25.496080   0.397639
Si   1.142825  27.155596   1.937460
Si   5.774296  25.019725   2.184663
Si   4.217534  24.377164   0.453887
Si   1.763085  22.805333   3.485840
Si   5.718256  21.367324   3.740331
Si   3.855530  21.612654   5.110375
Si   3.813547  23.683322   6.594386
Si   2.875005  24.568724   4.662792
Si   1.199136  25.825320   5.716779
Si   0.005127  26.654325   3.920732
Si   4.345559  26.170750   3.620675
Si   3.022476  24.923289  11.282148
Si   6.340797  26.081808   6.544992
Si   2.001621  23.022628   7.799208
Si   1.554035  23.454786  10.227341
Si   2.290874  20.778041   8.310161
Si   5.964023  23.142695   7.633303
Si   5.644384  20.941211   8.293942
Si   6.234186  23.760805   9.864051
Si   2.524356  27.225011   7.134193
Si   4.892915  25.708179   9.840366
Si   4.259790  25.772151   7.575157
Si   0.162180  22.186621  11.658156
Si   3.472438  21.563150  13.246289
Si   5.942307  23.751451  13.483632
Si   4.546555  23.209620  11.638191
Si   6.109744  27.269044   4.677151
Si   6.711225  20.700230  24.773439
Si   2.161763  12.851792  24.254855
Si   2.661245   9.144117  27.206413
Si   6.808919   4.182417  13.484179
Si   2.365843   1.481525  16.121239
Si   3.397855   1.607967  13.996636
Si   2.997259   5.520105  15.281101
Si   1.685493   3.832993  16.232198
Si   1.038337   6.794697  15.160543
Si   6.551255   5.770604  15.171236
Si   2.555352   2.664650  18.276118
Si   1.071877   1.649563  19.818849
Si   6.488323   2.818609  17.994522
Si   4.562390   1.371449  18.321929
Si   5.026875   0.323518  20.416994
Si   3.072663   4.758462  19.236376
Si   3.769897   5.310659  13.064630
Si   6.167015   5.184822  17.388638
Si   6.716312   3.480123  20.312763
Si   2.447229   1.129971  21.656058
Si   1.299697   0.899465  23.663931
Si   3.823229   2.855559  22.381708
Si   6.075885   1.708647  21.883255
Si   3.208976   6.692381  21.836431
Si   1.390882   5.547756  20.770110
Si   4.673951   4.573877  21.034256
Si   5.931613   5.539934  22.979032
Si   2.530386   1.978529  25.414659
Si   0.564091   3.075562  26.668684
Si   4.786633   1.235536  24.063268
Si   6.513266   2.191955  25.649924
Si   3.995042   5.943292  17.367223
Si   3.201564   3.969661  24.236148
Si   1.702461   4.883671  11.890577
Si   4.737376   1.877649  10.816734
Si   0.685993   3.064157   3.206760
Si   2.417234   3.361014   1.094894
Si   6.101676   1.526316   0.499042
Si   3.702370   1.227091   0.306202
Si   6.704114   3.121264   2.146316
Si   2.963865   5.628986   1.411142
Si   1.086047   6.630707   2.519761
Si   4.438085   5.811766   3.299504
Si   6.812912   5.216137   1.068879
Si   3.110652   2.682452   3.570406
Si   2.095984   2.918054   5.880031
Si   5.658004   2.030158   5.652288
Si   2.358076   5.242175   5.959374
Si   4.732589   3.223115  12.825454
Si   0.677946   5.226585   4.251804
Si   4.123259   6.712866   5.353899
Si   0.604903   2.596967   8.954773
Si   1.433742   0.331619   9.141902
Si   4.253828   3.192401   8.927450
Si   3.791995   1.903658   7.021839
Si   6.421643   0.171275  10.180573
Si   1.738166   5.930000   8.106978
Si   2.243972   4.196721   9.643118
Si   6.639677   3.869998   8.707884
Si   6.443578   6.199889   8.588283
Si   2.952405   0.154154  10.798601
Si   1.643825   1.116783  12.454780
Si   0.096958   3.068041  12.395376
Si   5.309893   3.617038   3.864610
Si   5.827902   7.727086  25.984633
Si   2.802390   6.380208  24.187246
Si   2.657187   6.832796  26.557069
Si   2.142703  13.234583  12.682742
Si   4.497762  13.166591  12.613574
Si   5.192425  13.021773  10.309036
Si   5.047880  11.012888  13.651397
Si   1.836985   8.945200  14.767988
Si   3.990365   9.408209  15.585370
Si   5.699494   7.982098  14.546015
Si   1.899821  12.328669  16.845877
Si   0.585342  11.186205  15.310202
Si   4.112537  11.476443  16.785680
Si   5.701080  12.798706  15.622785
Si   1.076581   7.556641  17.510427
Si   3.487809   8.159955  17.567643
Si   0.810750  11.228515  12.937234
Si   4.453729   9.062258  19.516577
Si   0.975930  12.443156  18.904621
Si   6.809822  12.052352  19.263070
Si   4.498118  11.437797  19.253552
Si   2.964357   8.955922  21.307729
Si   0.688668   9.257784  20.955269
Si   0.685396   7.400883  23.687425
Si   5.042902   7.912136  23.795567
Si   3.863707   9.886669  23.298562
Si   0.933707  12.804231  22.204043
Si   2.766808  12.855430  20.512938
Si   4.768144  11.627087  21.959753
Si   4.372773  13.284716  23.620691
Si   0.990289   9.777516  24.416548
Si   6.666234   8.390871  20.109635
Si   0.607564   5.502410  26.845393
Si   4.039540   9.525403  12.080194
Si   0.781368   7.010680  12.468045
Si   5.384969   4.268186  25.044395
Si   5.031880   5.673101  26.859943
Si   1.089378  10.100246   1.569121
Si   6.053567   9.132821   2.166320
Si   5.052557   9.533663   0.026763
Si   6.553908   6.872809   2.727101
Si   1.750529  12.373578   1.559935
Si   0.250157  13.551351   0.079753
Si   3.906455  13.274815   0.967074
Si   1.504879   8.703591   3.462045
Si   0.473647   9.193566   5.538484
Si   5.501535  10.034441   4.287605
Si   3.474243   8.844935   4.825935
Si   4.951389   7.284563  12.196486
Si   6.341699   6.920070   6.289789
Si   6.189879  12.436729   4.386776
Si   2.695192   7.890530   8.784000
Si   2.646424   9.568315   6.982756
Si   0.767619   8.181971  10.161181
Si   4.773040   7.322443   9.777516
Si   5.460209   9.489766   9.479127
Si   0.741349  12.324320   8.790618
Si   2.848776  11.622027   8.201909
Si   5.307869  10.273016   7.320501
Si   6.007263  12.512051   8.143572
Si   3.911679  13.510517   7.128504
Si   3.922045  11.034576  10.214760
Si   1.872269   9.232922  12.384353
Si   1.592563  13.571426   3.597646
Si   3.349472  26.363458  26.854363
Si   4.008580  26.447614  24.671478
Si   6.583473  24.590111  26.781038
Si  12.987366  15.508763  18.214909
Si  11.224549  13.731150  18.236077
Si   8.542472  18.140845  17.886490
Si   9.955427  19.994600  17.706691
Si   8.739282  17.706335  20.201667
Si  12.812819  18.944853  20.067488
Si  13.268223  17.858702  17.928281
Si  10.047980  16.694987  21.887248
Si   9.301489  14.474304  21.351078
Si   9.518648  13.790034  23.570449
Si  13.352133  15.604296  20.650262
Si   7.713575  19.480284  21.168791
Si   9.245312  17.731771  23.842390
Si   7.599799  14.353554  19.763848
Si   7.123034  18.821340  23.349406
Si  13.020487  19.127906  23.244136
Si   8.887328  15.773046  24.937785
Si  12.858056  16.048023  23.962894
Si  11.100107  15.340642  25.770729
Si  12.382029  16.575577  27.339552
Si  10.034578  19.969575  26.724341
Si  12.538553  18.790818  26.410145
Si  10.901765  19.345694  24.390703
Si   8.376184  22.391062   2.162551
Si   7.479924  22.431704   0.052111
Si  10.663710  22.968995   1.905775
Si  11.585624  21.604148   0.196435
Si   7.165481  26.916721   1.451713
Si  12.273176  17.290588  21.875925
Si  10.501962  25.275448   1.259243
Si   8.936230  14.309657  17.697720
Si   9.921869  19.279726  14.476984
Si  12.592049  19.038636   2.604800
Si  13.368871  20.317795   0.768573
Si   7.976682  15.611462   6.618755
Si  10.548649  16.015257   3.640777
Si  12.322925  15.292561   5.046677
Si   6.874696  17.797247   4.059998
Si   7.434742  19.995476   4.545570
Si   8.978321  17.110269   4.974008
Si  10.279580  18.955000   5.842370
Si  11.298258  20.310001   4.244392
Si   9.614728  16.100398   8.348396
Si   8.216487  17.039406   9.866130
Si  10.714554  14.556299   9.661716
Si  11.515717  19.134197  16.196943
Si  13.020296  16.574018   6.839524
Si  11.130465  17.643622   7.523520
Si  11.884888  19.171612   9.171877
Si   6.866737  15.766865  11.320411
Si  10.337671  15.514506  13.247711
Si  11.283598  16.220027  11.152592
Si   8.575155  19.777660  10.291149
Si  13.444357  19.493986  13.408091
Si  10.492718  18.413141  10.864268
Si  11.250559  19.837119  12.526738
Si   9.261995  16.402397  16.553095
Si  11.610731  16.672998  16.287992
Si  12.504557  15.553289  14.290019
Si   8.878193  17.128293  14.307387
Si   7.543185  19.590887   8.212521
Si  11.167114  17.445061   1.804977
Si  10.377356  26.413591   3.362819
Si   6.898955  23.455169   3.643731
Si   8.239215  22.956140  20.083160
Si  12.004134  22.813045  19.568405
Si  11.046774  20.616457  19.643919
Si   9.845371  25.516155  17.731634
Si   8.769477  27.271505  18.892368
Si  10.150761  24.244572  19.752799
Si   9.366691  21.128805  21.150822
Si  10.660456  21.280269  23.010266
Si  12.331076  22.570369  21.858038
Si   9.146469  24.820207  23.542005
Si   6.880084  24.168101  23.343143
Si  10.406566  25.600530  21.669487
Si  12.639720  24.921238  22.048968
Si   6.938476  22.058322  18.364540
Si   8.666012  21.499944  25.610759
Si  12.003313  23.208608  25.979847
Si   9.546572  26.387143  25.245117
Si   8.656002  25.740152  27.322787
Si  13.554879  25.481393  24.114358
Si  11.881442  26.742310  25.423411
Si  12.454561  25.315242  27.224737
Si  15.733826   1.862450   3.099576
Si  15.126218   1.798290   0.826254
Si  17.190706   0.695398   0.444372
Si  18.561214   2.669070   0.611494
Si  14.665043   5.448858   2.408012
Si  16.414020   4.046323   3.272564
Si  17.925327   4.545816   1.586418
Si  10.171465  22.951847  24.579554
Si   8.810091  20.648293   6.602399
Si  10.638685  26.950581  14.362524
Si  13.295491  24.676756  16.383881
Si  11.912046  22.716637   3.906127
Si  13.015783  20.761522   5.906041
Si   7.423118  23.990736   5.974416
Si   9.578161  24.425683   6.808482
Si  11.137330  24.923125   4.998814
Si  12.974977  26.038431   5.957432
Si   9.615932  21.846688   9.951954
Si  10.054872  22.309477   7.787147
Si  12.111264  21.226745   8.005810
Si  13.440528  21.873518   9.943585
Si   9.485418  26.345681   8.352116
Si   7.013087  20.545429  11.870994
Si   7.846059  22.480770  13.003913
Si  11.693492  26.411348  16.453596
Si   8.379575  23.520945  10.931002
Si  11.973474  23.569327  12.888770
Si  10.152375  25.085311  13.066490
Si   9.473876  25.664009  10.740755
Si   7.852048  26.999537  11.887678
Si  13.143972  25.217712  11.821682
Si  11.725301  26.788778  10.975746
Si   8.731679  21.790976  16.950846
Si   8.245451  20.900241  14.856246
Si  10.326731  23.363437  16.400865
Si  12.314146  22.942766  15.165165
Si  13.132048  20.710623  15.532421
Si   8.854645  23.960679  14.608893
Si   7.829293  25.759269  15.731857
Si  11.539758  21.846059  11.398030
Si   6.885800  18.004040   1.663698
Si   9.176828  20.248627   3.014763
Si   9.257100  18.688255   1.216495
Si   8.865229   0.573945  15.510431
Si   8.747651   6.371976  15.003335
Si  10.064937   4.433079  14.599430
Si  11.319345   4.402694  16.563789
Si  13.589805   3.904459  16.141095
Si   8.657506   1.770746  17.549018
Si  10.270882   2.709488  20.152027
Si  12.664992   1.048728  17.514037
Si  10.834429   2.518402  17.911159
Si   7.516518   6.487064  18.934131
Si   8.672931   5.000236  20.404467
Si  11.024101   6.214303  18.027069
Si   8.301026   1.574944  22.666012
Si   8.568755   2.665892  14.331044
Si   9.623398   0.402048  21.062919
Si   8.218866   5.583585  22.615469
Si  12.147475   3.523145  21.268837
Si  11.701807   3.687491  23.569355
Si  11.104620   5.734584  20.540917
Si   7.762176   0.393829  24.557702
Si  12.504830   1.449318  26.329380
Si  10.629085   2.723672  27.038046
Si   8.559730   3.466202  25.740480
Si   8.568700   5.530033  26.930670
Si  11.878789   5.978819  24.764714
Si  10.981982   5.073097  26.763862
Si   7.998617  10.227587   1.470678
Si  10.954277   8.247092   0.783958
Si   9.192581   3.635444  23.577478
Si  12.033453   9.056187   2.724396
Si  10.783804   4.880662  12.440640
Si  11.524114   1.313954  12.425078
Si   6.304640  25.810386  24.763401
Si   8.676213   2.214390   3.329480
Si   8.189328   0.032329   3.409971
Si  10.454756   2.576778   1.969063
Si  11.847528   0.767605   2.674029
Si  13.361952   0.258440   0.952989
Si  10.051316   6.214713   1.395805
Si  10.861150   4.600133   3.044219
Si   9.241674   2.820113   5.567557
Si  13.559966   1.994373   3.811332
Si   7.107472   5.257955   4.877818
Si   9.599631   5.126675   4.996517
Si  13.361268   5.216219   6.253714
Si   8.480934   5.094731  11.718682
Si  13.128656   4.350510   3.972423
Si   7.522207   2.365028   7.064396
Si   7.456048   0.157230   8.049652
Si  10.938250   2.391087   7.280214
Si  13.296585   2.895025   6.947447
Si  11.375494   0.064724   7.477408
Si  13.009383   0.010793   9.035620
Si   8.517392   6.715875   9.647603
Si  10.433314   3.620593   9.251110
Si  10.650993   5.899012   8.778420
Si   8.400006   3.233235  10.280427
Si   9.063872   1.740899  12.219898
Si  13.667369   1.186503  13.550475
Si  11.849770   3.189694  11.103444
Si  11.128715   6.209763   6.435811
Si   7.300891  12.183140   0.445972
Si   9.454457  10.728010   3.235614
Si  11.645931  11.414960   2.796756
Si  10.130686  11.946453  14.729315
Si  11.726039  12.027901  16.571092
Si   9.022683   7.121037  17.197379
Si   9.186291   9.425084  17.768447
Si   8.203687  10.174309  19.893077
Si  11.468922  10.039693  17.776050
Si  12.666359   9.940248  19.921439
Si  10.801062  13.089437  20.479954
Si   8.878877   7.756651  23.564131
Si   9.917876  10.254910  23.244519
Si   6.942770   8.537521  22.486814
Si  12.853023   8.387397  21.732228
Si  11.142281   7.006359  22.694538
Si   7.572230  12.489104  16.990723
Si   7.021948  10.874333  22.164878
Si  10.355695  10.805575  20.893732
Si  12.790255  13.536007  21.620749
Si   9.165587   9.356982  27.089190
Si   8.207626   7.540286  25.839350
Si  12.159892   8.102820  26.008619
Si  11.830352  10.013163  24.696093
Si   8.297470  11.861011  24.016226
Si   9.072022  11.668549  26.264068
Si  12.605697  12.047155  25.429729
Si  10.871078  13.144601  26.659303
Si   9.290604  14.165522   2.786938
Si   7.322197  14.302327   1.451101
Si  12.985807  14.981318   1.643719
Si  11.874632  13.673250  23.829371
Si   8.558198  10.758177  16.048132
Si  11.202013   8.307836  13.935235
Si  11.685780   8.092810  16.376961
Si  11.250477  13.406122   1.623335
Si   8.855110   6.932952   3.525853
Si   9.217114   8.886124   4.846830
Si   6.993805   9.162742   6.032836
Si  11.043164   8.626518   6.443605
Si  12.788723   9.342076   5.147051
Si   8.466384  12.589643   4.322011
Si   9.203084  13.506223   6.438354
Si  11.595279  13.426416   6.308907
Si  12.784183  11.724425   4.901339
Si   9.393850   9.084795   9.525157
Si   8.833640   9.978401   7.401293
Si  11.630779   9.157518   8.787938
Si  12.359656   7.207327   9.915551
Si   8.297416  12.128686   8.064968
Si   9.272279  12.761729  10.149011
Si  12.935647  11.089769   7.679552
Si  12.516536  11.685698  10.115097
Si  12.509316  13.656457   8.513891
Si   7.338470   7.313992  11.806913
Si   7.337868   9.517335  10.756044
Si   8.862877   8.016859  13.493669
Si  12.162736   6.852378  12.393106
Si   7.415597  13.416707  11.436867
Si   7.164059  11.118924  12.409105
Si   8.901796  13.657441  13.580478
Si  10.487467  10.829807  10.953702
Si  11.407494  10.540143  13.264394
Si   7.419317   9.598701  14.286409
Si  26.568665  25.381046  26.520748
Si  24.561285  26.366138  27.279957
